
     RDKit          3D

 83 84  0  0  0  0  0  0  0  0999 V2000
    1.3941   -1.9153    3.5301 C   0  0  0  0  0  0  0  0  0  0  0  0
    0.4875   -1.5142    2.3351 C   0  0  0  0  0  0  0  0  0  0  0  0
   -0.4456   -0.4481    2.9416 C   0  0  0  0  0  0  0  0  0  0  0  0
    1.3226   -0.7924    1.3511 C   0  0  0  0  0  0  0  0  0  0  0  0
    2.4906   -0.1859    1.8610 C   0  0  0  0  0  0  0  0  0  0  0  0
    3.3512    0.4947    1.0460 C   0  0  0  0  0  0  0  0  0  0  0  0
    4.5930    1.1547    1.5924 C   0  0  0  0  0  0  0  0  0  0  0  0
    5.4160    0.1770    2.3533 C   0  0  0  0  0  0  0  0  0  0  0  0
    4.1899    2.3490    2.4595 C   0  0  0  0  0  0  0  0  0  0  0  0
    3.0427    0.5664   -0.2858 C   0  0  0  0  0  0  0  0  0  0  0  0
    1.8802   -0.0383   -0.7939 C   0  0  0  0  0  0  0  0  0  0  0  0
    1.7529    0.0248   -2.2733 C   0  0  0  0  0  0  0  0  0  0  0  0
    2.5588    1.1781   -2.8581 C   0  0  0  0  0  0  0  0  0  0  0  0
    2.4451   -1.2349   -2.8243 C   0  0  0  0  0  0  0  0  0  0  0  0
    0.9972   -0.7304    0.0381 C   0  0  0  0  0  0  0  0  0  0  0  0
   -0.1561   -1.3564   -0.5680 C   0  0  0  0  0  0  0  0  0  0  0  0
   -1.3349   -0.7260   -0.7866 C   0  0  0  0  0  0  0  0  0  0  0  0
   -1.8362    0.8568   -0.1901 P   0  0  0  0  0  0  0  0  0  0  0  0
   -1.5953    2.3769   -1.0686 C   0  0  0  0  0  0  0  0  0  0  0  0
   -0.3417    2.5732   -1.8713 C   0  0  0  0  0  0  0  0  0  0  0  0
   -2.7409    2.6810   -2.0116 C   0  0  0  0  0  0  0  0  0  0  0  0
   -1.5584    3.5589   -0.0628 C   0  0  0  0  0  0  0  0  0  0  0  0
   -3.3122    0.8375    0.9117 C   0  0  0  0  0  0  0  0  0  0  0  0
   -3.0137    1.5624    2.2042 C   0  0  0  0  0  0  0  0  0  0  0  0
   -4.5360    1.4551    0.2638 C   0  0  0  0  0  0  0  0  0  0  0  0
   -3.6780   -0.5868    1.2405 C   0  0  0  0  0  0  0  0  0  0  0  0
   -2.3205   -1.4677   -1.4902 C   0  0  0  0  0  0  0  0  0  0  0  0
   -3.5397   -0.8894   -1.7591 O   0  0  0  0  0  0  0  0  0  0  0  0
   -4.5268   -1.6102   -2.4547 C   0  0  0  0  0  0  0  0  0  0  0  0
   -2.1226   -2.7502   -1.9290 C   0  0  0  0  0  0  0  0  0  0  0  0
   -0.9164   -3.3608   -1.6832 C   0  0  0  0  0  0  0  0  0  0  0  0
    0.0473   -2.7020   -1.0254 C   0  0  0  0  0  0  0  0  0  0  0  0
    1.2836   -3.2745   -0.7456 O   0  0  0  0  0  0  0  0  0  0  0  0
    1.6482   -4.5655   -1.1168 C   0  0  0  0  0  0  0  0  0  0  0  0
    0.8777   -2.7607    4.0434 H   0  0  0  0  0  0  0  0  0  0  0  0
    1.4261   -1.0797    4.2192 H   0  0  0  0  0  0  0  0  0  0  0  0
    2.3818   -2.2524    3.1491 H   0  0  0  0  0  0  0  0  0  0  0  0
   -0.0082   -2.4025    2.0017 H   0  0  0  0  0  0  0  0  0  0  0  0
   -0.2190   -0.3118    4.0489 H   0  0  0  0  0  0  0  0  0  0  0  0
   -1.4794   -0.7824    2.9194 H   0  0  0  0  0  0  0  0  0  0  0  0
   -0.3039    0.5186    2.4637 H   0  0  0  0  0  0  0  0  0  0  0  0
    2.7256   -0.2522    2.9178 H   0  0  0  0  0  0  0  0  0  0  0  0
    5.2009    1.5790    0.7724 H   0  0  0  0  0  0  0  0  0  0  0  0
    6.4838    0.5180    2.3024 H   0  0  0  0  0  0  0  0  0  0  0  0
    5.1608    0.1168    3.4302 H   0  0  0  0  0  0  0  0  0  0  0  0
    5.3949   -0.8073    1.8458 H   0  0  0  0  0  0  0  0  0  0  0  0
    3.7946    3.1207    1.7381 H   0  0  0  0  0  0  0  0  0  0  0  0
    3.4177    2.0803    3.1898 H   0  0  0  0  0  0  0  0  0  0  0  0
    5.1128    2.7409    2.9066 H   0  0  0  0  0  0  0  0  0  0  0  0
    3.7402    1.1061   -0.9223 H   0  0  0  0  0  0  0  0  0  0  0  0
    0.7620    0.0230   -2.6666 H   0  0  0  0  0  0  0  0  0  0  0  0
    2.0556    1.4432   -3.8219 H   0  0  0  0  0  0  0  0  0  0  0  0
    3.5880    0.8654   -3.1548 H   0  0  0  0  0  0  0  0  0  0  0  0
    2.5819    2.0616   -2.2370 H   0  0  0  0  0  0  0  0  0  0  0  0
    3.0604   -1.6700   -2.0416 H   0  0  0  0  0  0  0  0  0  0  0  0
    1.6692   -1.9174   -3.1943 H   0  0  0  0  0  0  0  0  0  0  0  0
    3.0911   -0.9811   -3.7106 H   0  0  0  0  0  0  0  0  0  0  0  0
    0.5211    2.4049   -1.2202 H   0  0  0  0  0  0  0  0  0  0  0  0
   -0.3129    2.0277   -2.8124 H   0  0  0  0  0  0  0  0  0  0  0  0
   -0.2751    3.6721   -2.1873 H   0  0  0  0  0  0  0  0  0  0  0  0
   -2.3595    2.8818   -3.0533 H   0  0  0  0  0  0  0  0  0  0  0  0
   -3.2703    3.6185   -1.7403 H   0  0  0  0  0  0  0  0  0  0  0  0
   -3.4188    1.8142   -2.0617 H   0  0  0  0  0  0  0  0  0  0  0  0
   -1.1931    4.4609   -0.6172 H   0  0  0  0  0  0  0  0  0  0  0  0
   -0.8326    3.3020    0.7335 H   0  0  0  0  0  0  0  0  0  0  0  0
   -2.5578    3.7871    0.3110 H   0  0  0  0  0  0  0  0  0  0  0  0
   -3.7943    2.3804    2.3387 H   0  0  0  0  0  0  0  0  0  0  0  0
   -2.0332    2.0218    2.2577 H   0  0  0  0  0  0  0  0  0  0  0  0
   -3.2256    0.8706    3.0573 H   0  0  0  0  0  0  0  0  0  0  0  0
   -5.3783    1.4873    1.0538 H   0  0  0  0  0  0  0  0  0  0  0  0
   -4.4293    2.4876   -0.0405 H   0  0  0  0  0  0  0  0  0  0  0  0
   -4.9896    0.8724   -0.5399 H   0  0  0  0  0  0  0  0  0  0  0  0
   -3.7939   -0.7322    2.3483 H   0  0  0  0  0  0  0  0  0  0  0  0
   -4.6100   -0.8744    0.7158 H   0  0  0  0  0  0  0  0  0  0  0  0
   -2.8634   -1.2413    0.8801 H   0  0  0  0  0  0  0  0  0  0  0  0
   -4.2328   -1.8800   -3.4862 H   0  0  0  0  0  0  0  0  0  0  0  0
   -4.7223   -2.5566   -1.8923 H   0  0  0  0  0  0  0  0  0  0  0  0
   -5.4658   -1.0016   -2.5215 H   0  0  0  0  0  0  0  0  0  0  0  0
   -2.8748   -3.3107   -2.4642 H   0  0  0  0  0  0  0  0  0  0  0  0
   -0.7132   -4.3896   -2.0139 H   0  0  0  0  0  0  0  0  0  0  0  0
    1.6406   -4.7406   -2.2183 H   0  0  0  0  0  0  0  0  0  0  0  0
    2.7119   -4.7146   -0.7873 H   0  0  0  0  0  0  0  0  0  0  0  0
    1.0322   -5.3015   -0.5696 H   0  0  0  0  0  0  0  0  0  0  0  0
  1  2  1  0
  2  3  1  0
  2  4  1  0
  4  5  2  0
  5  6  1  0
  6  7  1  0
  7  8  1  0
  7  9  1  0
  6 10  2  0
 10 11  1  0
 11 12  1  0
 12 13  1  0
 12 14  1  0
  4 15  1  0
 15 16  1  0
 16 17  2  0
 17 18  1  0
 18 19  1  0
 19 20  1  0
 19 21  1  0
 19 22  1  0
 18 23  1  0
 23 24  1  0
 23 25  1  0
 23 26  1  0
 17 27  1  0
 27 28  1  0
 28 29  1  0
 27 30  2  0
 30 31  1  0
 31 32  2  0
 32 33  1  0
 33 34  1  0
 15 11  2  0
 32 16  1  0
  1 35  1  0
  1 36  1  0
  1 37  1  0
  2 38  1  0
  3 39  1  0
  3 40  1  0
  3 41  1  0
  5 42  1  0
  7 43  1  0
  8 44  1  0
  8 45  1  0
  8 46  1  0
  9 47  1  0
  9 48  1  0
  9 49  1  0
 10 50  1  0
 12 51  1  0
 13 52  1  0
 13 53  1  0
 13 54  1  0
 14 55  1  0
 14 56  1  0
 14 57  1  0
 20 58  1  0
 20 59  1  0
 20 60  1  0
 21 61  1  0
 21 62  1  0
 21 63  1  0
 22 64  1  0
 22 65  1  0
 22 66  1  0
 24 67  1  0
 24 68  1  0
 24 69  1  0
 25 70  1  0
 25 71  1  0
 25 72  1  0
 26 73  1  0
 26 74  1  0
 26 75  1  0
 29 76  1  0
 29 77  1  0
 29 78  1  0
 30 79  1  0
 31 80  1  0
 34 81  1  0
 34 82  1  0
 34 83  1  0
M  END

