
     RDKit          3D

 75 76  0  0  0  0  0  0  0  0999 V2000
    0.9502   -1.1346   -3.4550 C   0  0  0  0  0  0  0  0  0  0  0  0
    1.0732   -1.7317   -2.0695 C   0  0  0  0  0  0  0  0  0  0  0  0
    0.3153   -2.9436   -1.9243 C   0  0  0  0  0  0  0  0  0  0  0  0
    1.5091   -0.8395   -1.0236 C   0  0  0  0  0  0  0  0  0  0  0  0
    2.4777    0.1076   -1.4261 C   0  0  0  0  0  0  0  0  0  0  0  0
    3.1431    0.9072   -0.5262 C   0  0  0  0  0  0  0  0  0  0  0  0
    4.1513    1.9049   -0.9470 C   0  0  0  0  0  0  0  0  0  0  0  0
    4.9770    1.4958   -2.1207 C   0  0  0  0  0  0  0  0  0  0  0  0
    3.4814    3.2561   -1.2108 C   0  0  0  0  0  0  0  0  0  0  0  0
    2.8445    0.7645    0.8107 C   0  0  0  0  0  0  0  0  0  0  0  0
    1.9134   -0.1310    1.3003 C   0  0  0  0  0  0  0  0  0  0  0  0
    1.7198   -0.3404    2.7183 C   0  0  0  0  0  0  0  0  0  0  0  0
    2.8970    0.4188    3.4183 C   0  0  0  0  0  0  0  0  0  0  0  0
    0.5450    0.2821    3.3995 C   0  0  0  0  0  0  0  0  0  0  0  0
    1.2741   -0.9005    0.3218 C   0  0  0  0  0  0  0  0  0  0  0  0
    0.2348   -1.7834    0.7424 C   0  0  0  0  0  0  0  0  0  0  0  0
   -1.0862   -1.3668    0.6703 C   0  0  0  0  0  0  0  0  0  0  0  0
   -1.7019    0.1271   -0.1616 P   0  0  0  0  0  0  0  0  0  0  0  0
   -2.0501    1.5797    0.8736 C   0  0  0  0  0  0  0  0  0  0  0  0
   -0.8228    2.4883    1.0326 C   0  0  0  0  0  0  0  0  0  0  0  0
   -3.0796    2.5324    0.2103 C   0  0  0  0  0  0  0  0  0  0  0  0
   -2.6412    1.2824    2.2288 C   0  0  0  0  0  0  0  0  0  0  0  0
   -3.2151   -0.2680   -1.1736 C   0  0  0  0  0  0  0  0  0  0  0  0
   -4.4684   -0.3824   -0.3602 C   0  0  0  0  0  0  0  0  0  0  0  0
   -3.0819   -1.5744   -1.9330 C   0  0  0  0  0  0  0  0  0  0  0  0
   -3.3280    0.8098   -2.2531 C   0  0  0  0  0  0  0  0  0  0  0  0
   -2.0948   -2.1910    1.1874 C   0  0  0  0  0  0  0  0  0  0  0  0
   -1.7590   -3.3871    1.7501 C   0  0  0  0  0  0  0  0  0  0  0  0
   -0.4468   -3.8273    1.8314 C   0  0  0  0  0  0  0  0  0  0  0  0
    0.5080   -2.9765    1.3078 C   0  0  0  0  0  0  0  0  0  0  0  0
    1.8860   -0.8345   -3.9289 H   0  0  0  0  0  0  0  0  0  0  0  0
    0.1922   -0.2919   -3.4578 H   0  0  0  0  0  0  0  0  0  0  0  0
    0.4817   -1.8770   -4.1484 H   0  0  0  0  0  0  0  0  0  0  0  0
    2.1797   -2.2470   -2.2865 H   0  0  0  0  0  0  0  0  0  0  0  0
    0.1024   -3.3298   -2.9869 H   0  0  0  0  0  0  0  0  0  0  0  0
   -0.6950   -2.9514   -1.5167 H   0  0  0  0  0  0  0  0  0  0  0  0
    0.9022   -3.8424   -1.5279 H   0  0  0  0  0  0  0  0  0  0  0  0
    2.7337    0.2440   -2.4743 H   0  0  0  0  0  0  0  0  0  0  0  0
    4.8596    2.1419   -0.0961 H   0  0  0  0  0  0  0  0  0  0  0  0
    5.1154    0.3837   -2.1963 H   0  0  0  0  0  0  0  0  0  0  0  0
    6.0268    1.8981   -2.0121 H   0  0  0  0  0  0  0  0  0  0  0  0
    4.5303    1.9385   -3.0369 H   0  0  0  0  0  0  0  0  0  0  0  0
    4.3044    3.9635   -1.4520 H   0  0  0  0  0  0  0  0  0  0  0  0
    2.7718    3.2282   -2.0378 H   0  0  0  0  0  0  0  0  0  0  0  0
    3.0522    3.5925   -0.2438 H   0  0  0  0  0  0  0  0  0  0  0  0
    3.3742    1.3981    1.5445 H   0  0  0  0  0  0  0  0  0  0  0  0
    1.9453   -1.3600    3.0920 H   0  0  0  0  0  0  0  0  0  0  0  0
    3.8529    0.1193    3.0133 H   0  0  0  0  0  0  0  0  0  0  0  0
    2.8297    0.1443    4.5172 H   0  0  0  0  0  0  0  0  0  0  0  0
    2.6548    1.4781    3.3895 H   0  0  0  0  0  0  0  0  0  0  0  0
    0.5641    0.0971    4.5105 H   0  0  0  0  0  0  0  0  0  0  0  0
   -0.3686   -0.2228    3.0673 H   0  0  0  0  0  0  0  0  0  0  0  0
    0.4702    1.3631    3.2275 H   0  0  0  0  0  0  0  0  0  0  0  0
   -0.9164    2.9232    2.0662 H   0  0  0  0  0  0  0  0  0  0  0  0
    0.1035    1.9546    0.8482 H   0  0  0  0  0  0  0  0  0  0  0  0
   -0.9518    3.3718    0.3668 H   0  0  0  0  0  0  0  0  0  0  0  0
   -4.0877    2.1591    0.2289 H   0  0  0  0  0  0  0  0  0  0  0  0
   -3.0832    3.4098    0.9420 H   0  0  0  0  0  0  0  0  0  0  0  0
   -2.6966    2.9693   -0.7098 H   0  0  0  0  0  0  0  0  0  0  0  0
   -3.6904    1.6629    2.2833 H   0  0  0  0  0  0  0  0  0  0  0  0
   -2.6013    0.2071    2.5082 H   0  0  0  0  0  0  0  0  0  0  0  0
   -2.0918    1.8787    2.9742 H   0  0  0  0  0  0  0  0  0  0  0  0
   -5.2269    0.3018   -0.8515 H   0  0  0  0  0  0  0  0  0  0  0  0
   -4.9505   -1.4063   -0.4581 H   0  0  0  0  0  0  0  0  0  0  0  0
   -4.4081   -0.0672    0.6804 H   0  0  0  0  0  0  0  0  0  0  0  0
   -3.9543   -1.7389   -2.5981 H   0  0  0  0  0  0  0  0  0  0  0  0
   -2.9841   -2.3875   -1.1942 H   0  0  0  0  0  0  0  0  0  0  0  0
   -2.1653   -1.5262   -2.5650 H   0  0  0  0  0  0  0  0  0  0  0  0
   -3.5111    0.3388   -3.2669 H   0  0  0  0  0  0  0  0  0  0  0  0
   -2.3726    1.3427   -2.3711 H   0  0  0  0  0  0  0  0  0  0  0  0
   -4.1506    1.5161   -2.0490 H   0  0  0  0  0  0  0  0  0  0  0  0
   -3.1404   -1.9338    1.1645 H   0  0  0  0  0  0  0  0  0  0  0  0
   -2.5207   -4.0590    2.1678 H   0  0  0  0  0  0  0  0  0  0  0  0
   -0.1649   -4.7622    2.2658 H   0  0  0  0  0  0  0  0  0  0  0  0
    1.5599   -3.3669    1.3891 H   0  0  0  0  0  0  0  0  0  0  0  0
  1  2  1  0
  2  3  1  0
  2  4  1  0
  4  5  2  0
  5  6  1  0
  6  7  1  0
  7  8  1  0
  7  9  1  0
  6 10  2  0
 10 11  1  0
 11 12  1  0
 12 13  1  0
 12 14  1  0
  4 15  1  0
 15 16  1  0
 16 17  2  0
 17 18  1  0
 18 19  1  0
 19 20  1  0
 19 21  1  0
 19 22  1  0
 18 23  1  0
 23 24  1  0
 23 25  1  0
 23 26  1  0
 17 27  1  0
 27 28  2  0
 28 29  1  0
 29 30  2  0
 15 11  2  0
 30 16  1  0
  1 31  1  0
  1 32  1  0
  1 33  1  0
  2 34  1  0
  3 35  1  0
  3 36  1  0
  3 37  1  0
  5 38  1  0
  7 39  1  0
  8 40  1  0
  8 41  1  0
  8 42  1  0
  9 43  1  0
  9 44  1  0
  9 45  1  0
 10 46  1  0
 12 47  1  0
 13 48  1  0
 13 49  1  0
 13 50  1  0
 14 51  1  0
 14 52  1  0
 14 53  1  0
 20 54  1  0
 20 55  1  0
 20 56  1  0
 21 57  1  0
 21 58  1  0
 21 59  1  0
 22 60  1  0
 22 61  1  0
 22 62  1  0
 24 63  1  0
 24 64  1  0
 24 65  1  0
 25 66  1  0
 25 67  1  0
 25 68  1  0
 26 69  1  0
 26 70  1  0
 26 71  1  0
 27 72  1  0
 28 73  1  0
 29 74  1  0
 30 75  1  0
M  END

