
     RDKit          3D

 26 27  0  0  0  0  0  0  0  0999 V2000
   -2.1512   -1.9380    0.1959 C   0  0  0  0  0  0  0  0  0  0  0  0
   -1.4771   -0.6634    0.0132 N   0  0  0  0  0  0  0  0  0  0  0  0
   -2.3045    0.5119   -0.1501 C   0  0  0  0  0  0  0  0  0  0  0  0
   -1.5501    1.7918    0.0618 C   0  0  0  0  0  0  0  0  0  0  0  0
   -0.2012    1.8188   -0.5950 C   0  0  0  0  0  0  0  0  0  0  0  0
    0.6181    0.6725   -0.2658 N   0  0  0  0  0  0  0  0  0  0  0  0
    2.0394    0.8071   -0.2133 C   0  0  0  0  0  0  0  0  0  0  0  0
    2.7538   -0.3460    0.3987 C   0  0  0  0  0  0  0  0  0  0  0  0
    2.0629   -1.6670    0.2335 C   0  0  0  0  0  0  0  0  0  0  0  0
    0.6384   -1.5914    0.2145 N   0  0  0  0  0  0  0  0  0  0  0  0
   -0.0605   -0.5493   -0.0081 C   0  0  0  0  0  0  0  0  0  0  0  0
   -1.3773   -2.7241    0.3196 H   0  0  0  0  0  0  0  0  0  0  0  0
   -2.7110   -1.8489    1.1638 H   0  0  0  0  0  0  0  0  0  0  0  0
   -2.8842   -2.1587   -0.5872 H   0  0  0  0  0  0  0  0  0  0  0  0
   -2.8010    0.4834   -1.1365 H   0  0  0  0  0  0  0  0  0  0  0  0
   -3.0914    0.4619    0.6359 H   0  0  0  0  0  0  0  0  0  0  0  0
   -2.1527    2.6072   -0.3954 H   0  0  0  0  0  0  0  0  0  0  0  0
   -1.4356    2.0434    1.1314 H   0  0  0  0  0  0  0  0  0  0  0  0
    0.3023    2.7543   -0.2709 H   0  0  0  0  0  0  0  0  0  0  0  0
   -0.2968    1.9232   -1.7167 H   0  0  0  0  0  0  0  0  0  0  0  0
    2.4073    1.0005   -1.2475 H   0  0  0  0  0  0  0  0  0  0  0  0
    2.2554    1.7423    0.3799 H   0  0  0  0  0  0  0  0  0  0  0  0
    3.7932   -0.4503    0.0042 H   0  0  0  0  0  0  0  0  0  0  0  0
    2.8671   -0.1404    1.4942 H   0  0  0  0  0  0  0  0  0  0  0  0
    2.4019   -2.1776   -0.7120 H   0  0  0  0  0  0  0  0  0  0  0  0
    2.3548   -2.3632    1.0519 H   0  0  0  0  0  0  0  0  0  0  0  0
  1  2  1  0
  2  3  1  0
  3  4  1  0
  4  5  1  0
  5  6  1  0
  6  7  1  0
  7  8  1  0
  8  9  1  0
  9 10  1  0
 10 11  2  0
 11  2  1  0
 11  6  1  0
  1 12  1  0
  1 13  1  0
  1 14  1  0
  3 15  1  0
  3 16  1  0
  4 17  1  0
  4 18  1  0
  5 19  1  0
  5 20  1  0
  7 21  1  0
  7 22  1  0
  8 23  1  0
  8 24  1  0
  9 25  1  0
  9 26  1  0
M  END

