
     RDKit          3D

 18 19  0  0  0  0  0  0  0  0999 V2000
    2.9150    0.0217    0.2250 C   0  0  0  0  0  0  0  0  0  0  0  0
    2.0776   -0.8487    0.8930 C   0  0  0  0  0  0  0  0  0  0  0  0
    0.6994   -0.7932    0.7308 C   0  0  0  0  0  0  0  0  0  0  0  0
    0.1120    0.1338   -0.1041 C   0  0  0  0  0  0  0  0  0  0  0  0
   -1.3350    0.2128   -0.2920 C   0  0  0  0  0  0  0  0  0  0  0  0
   -2.2849   -0.6007    0.3186 C   0  0  0  0  0  0  0  0  0  0  0  0
   -3.5371   -0.2075   -0.1194 C   0  0  0  0  0  0  0  0  0  0  0  0
   -3.2985    0.8099   -0.9622 N   0  0  0  0  0  0  0  0  0  0  0  0
   -2.0203    1.0345   -1.0459 O   0  0  0  0  0  0  0  0  0  0  0  0
    0.9414    0.9986   -0.7680 C   0  0  0  0  0  0  0  0  0  0  0  0
    2.3137    0.9436   -0.6067 C   0  0  0  0  0  0  0  0  0  0  0  0
    3.9937   -0.0237    0.3536 H   0  0  0  0  0  0  0  0  0  0  0  0
    2.5198   -1.5974    1.5646 H   0  0  0  0  0  0  0  0  0  0  0  0
    0.0458   -1.4757    1.2548 H   0  0  0  0  0  0  0  0  0  0  0  0
   -2.1146   -1.4051    1.0149 H   0  0  0  0  0  0  0  0  0  0  0  0
   -4.5220   -0.5802    0.1144 H   0  0  0  0  0  0  0  0  0  0  0  0
    0.5089    1.7469   -1.4385 H   0  0  0  0  0  0  0  0  0  0  0  0
    2.9851    1.6307   -1.1331 H   0  0  0  0  0  0  0  0  0  0  0  0
  1  2  2  0
  2  3  1  0
  3  4  2  0
  4  5  1  0
  5  6  2  0
  6  7  1  0
  7  8  2  0
  8  9  1  0
  4 10  1  0
 10 11  2  0
 11  1  1  0
  9  5  1  0
  1 12  1  0
  2 13  1  0
  3 14  1  0
  6 15  1  0
  7 16  1  0
 10 17  1  0
 11 18  1  0
M  END

