
     RDKit          3D

 17 18  0  0  0  0  0  0  0  0999 V2000
   -2.7702    0.2348   -0.2534 C   0  0  0  0  0  0  0  0  0  0  0  0
   -1.9653   -0.2232   -1.2731 C   0  0  0  0  0  0  0  0  0  0  0  0
   -0.5943   -0.3253   -1.1083 C   0  0  0  0  0  0  0  0  0  0  0  0
    0.0283    0.0226    0.0728 C   0  0  0  0  0  0  0  0  0  0  0  0
    1.4814   -0.0941    0.2239 C   0  0  0  0  0  0  0  0  0  0  0  0
    2.3778   -0.5204   -0.6769 N   0  0  0  0  0  0  0  0  0  0  0  0
    3.6032   -0.4675   -0.1250 C   0  0  0  0  0  0  0  0  0  0  0  0
    3.4197   -0.0006    1.1243 N   0  0  0  0  0  0  0  0  0  0  0  0
    2.1605    0.2060    1.2892 O   0  0  0  0  0  0  0  0  0  0  0  0
   -0.7759    0.4811    1.0942 C   0  0  0  0  0  0  0  0  0  0  0  0
   -2.1554    0.5851    0.9317 C   0  0  0  0  0  0  0  0  0  0  0  0
   -3.8522    0.3202   -0.3702 H   0  0  0  0  0  0  0  0  0  0  0  0
   -2.4459   -0.4979   -2.2021 H   0  0  0  0  0  0  0  0  0  0  0  0
    0.0394   -0.6825   -1.9016 H   0  0  0  0  0  0  0  0  0  0  0  0
    4.5607   -0.7458   -0.5904 H   0  0  0  0  0  0  0  0  0  0  0  0
   -0.3243    0.7561    2.0143 H   0  0  0  0  0  0  0  0  0  0  0  0
   -2.7873    0.9512    1.7507 H   0  0  0  0  0  0  0  0  0  0  0  0
  1  2  2  0
  2  3  1  0
  3  4  2  0
  4  5  1  0
  5  6  2  0
  6  7  1  0
  7  8  2  0
  8  9  1  0
  4 10  1  0
 10 11  2  0
 11  1  1  0
  9  5  1  0
  1 12  1  0
  2 13  1  0
  3 14  1  0
  7 15  1  0
 10 16  1  0
 11 17  1  0
M  END

