
     RDKit          3D

 18 19  0  0  0  0  0  0  0  0999 V2000
    2.9103   -0.0142    0.1713 C   0  0  0  0  0  0  0  0  0  0  0  0
    2.0958   -1.0364    0.6118 C   0  0  0  0  0  0  0  0  0  0  0  0
    0.7092   -0.9526    0.4936 C   0  0  0  0  0  0  0  0  0  0  0  0
    0.1103    0.1545   -0.0673 C   0  0  0  0  0  0  0  0  0  0  0  0
   -1.3392    0.2561   -0.1976 C   0  0  0  0  0  0  0  0  0  0  0  0
   -2.2698   -0.6825    0.1966 C   0  0  0  0  0  0  0  0  0  0  0  0
   -3.5381   -0.1788   -0.1149 C   0  0  0  0  0  0  0  0  0  0  0  0
   -3.3337    0.9803   -0.6551 O   0  0  0  0  0  0  0  0  0  0  0  0
   -2.0577    1.2656   -0.7188 N   0  0  0  0  0  0  0  0  0  0  0  0
    0.9234    1.1733   -0.5063 C   0  0  0  0  0  0  0  0  0  0  0  0
    2.3063    1.0920   -0.3894 C   0  0  0  0  0  0  0  0  0  0  0  0
    4.0008   -0.0623    0.2558 H   0  0  0  0  0  0  0  0  0  0  0  0
    2.5661   -1.9236    1.0607 H   0  0  0  0  0  0  0  0  0  0  0  0
    0.0673   -1.7470    0.8354 H   0  0  0  0  0  0  0  0  0  0  0  0
   -2.0908   -1.6411    0.6630 H   0  0  0  0  0  0  0  0  0  0  0  0
   -4.4967   -0.6493    0.0548 H   0  0  0  0  0  0  0  0  0  0  0  0
    0.4850    2.0667   -0.9564 H   0  0  0  0  0  0  0  0  0  0  0  0
    2.9516    1.8995   -0.7374 H   0  0  0  0  0  0  0  0  0  0  0  0
  1  2  2  0
  2  3  1  0
  3  4  2  0
  4  5  1  0
  5  6  1  0
  6  7  2  0
  7  8  1  0
  8  9  1  0
  4 10  1  0
 10 11  2  0
 11  1  1  0
  9  5  2  0
  1 12  1  0
  2 13  1  0
  3 14  1  0
  6 15  1  0
  7 16  1  0
 10 17  1  0
 11 18  1  0
M  END

