
     RDKit          3D

 18 19  0  0  0  0  0  0  0  0999 V2000
    2.7699    0.1017    0.0576 C   0  0  0  0  0  0  0  0  0  0  0  0
    2.0446   -0.6798    0.9324 C   0  0  0  0  0  0  0  0  0  0  0  0
    0.6665   -0.7361    0.9044 C   0  0  0  0  0  0  0  0  0  0  0  0
   -0.0510   -0.0008   -0.0153 C   0  0  0  0  0  0  0  0  0  0  0  0
   -1.5131   -0.0517   -0.0561 C   0  0  0  0  0  0  0  0  0  0  0  0
   -2.3575    0.0872   -1.1358 C   0  0  0  0  0  0  0  0  0  0  0  0
   -3.5948   -0.0359   -0.6678 N   0  0  0  0  0  0  0  0  0  0  0  0
   -3.5544   -0.2360    0.6000 O   0  0  0  0  0  0  0  0  0  0  0  0
   -2.3180   -0.2570    1.0358 C   0  0  0  0  0  0  0  0  0  0  0  0
    0.6763    0.7831   -0.8928 C   0  0  0  0  0  0  0  0  0  0  0  0
    2.0538    0.8385   -0.8636 C   0  0  0  0  0  0  0  0  0  0  0  0
    3.8653    0.1376    0.0901 H   0  0  0  0  0  0  0  0  0  0  0  0
    2.6071   -1.2668    1.6650 H   0  0  0  0  0  0  0  0  0  0  0  0
    0.1072   -1.3637    1.6085 H   0  0  0  0  0  0  0  0  0  0  0  0
   -2.0102    0.2621   -2.1447 H   0  0  0  0  0  0  0  0  0  0  0  0
   -2.0685   -0.4123    2.0726 H   0  0  0  0  0  0  0  0  0  0  0  0
    0.0912    1.3622   -1.6190 H   0  0  0  0  0  0  0  0  0  0  0  0
    2.5855    1.4677   -1.5711 H   0  0  0  0  0  0  0  0  0  0  0  0
  1  2  2  0
  2  3  1  0
  3  4  2  0
  4  5  1  0
  5  6  1  0
  6  7  2  0
  7  8  1  0
  8  9  1  0
  4 10  1  0
 10 11  2  0
 11  1  1  0
  9  5  2  0
  1 12  1  0
  2 13  1  0
  3 14  1  0
  6 15  1  0
  9 16  1  0
 10 17  1  0
 11 18  1  0
M  END

