
     RDKit          3D

 36 38  0  0  0  0  0  0  0  0999 V2000
    4.2595   -0.9748    0.9300 C   0  0  0  0  0  0  0  0  0  0  0  0
    4.0072    0.1825    0.2281 C   0  0  0  0  0  0  0  0  0  0  0  0
    2.7800    0.3476   -0.4053 C   0  0  0  0  0  0  0  0  0  0  0  0
    1.8059   -0.6166   -0.3498 C   0  0  0  0  0  0  0  0  0  0  0  0
    0.5012   -0.5186   -0.9813 C   0  0  0  0  0  0  0  0  0  0  0  0
   -0.1792    0.7235   -0.9366 N   0  0  0  0  0  0  0  0  0  0  0  0
   -1.5359    0.7444   -1.5104 C   0  0  0  0  0  0  0  0  0  0  0  0
   -2.3652   -0.2100   -0.7206 C   0  0  0  0  0  0  0  0  0  0  0  0
   -2.5351   -1.5112   -1.1001 C   0  0  0  0  0  0  0  0  0  0  0  0
   -3.3080   -2.3430   -0.3425 C   0  0  0  0  0  0  0  0  0  0  0  0
   -3.9140   -1.8578    0.8083 C   0  0  0  0  0  0  0  0  0  0  0  0
   -3.7278   -0.5322    1.1762 C   0  0  0  0  0  0  0  0  0  0  0  0
   -2.9520    0.3137    0.4202 C   0  0  0  0  0  0  0  0  0  0  0  0
    0.2587    1.9637   -0.4303 C   0  0  0  0  0  0  0  0  0  0  0  0
    0.3915    2.3204    0.9022 C   0  0  0  0  0  0  0  0  0  0  0  0
    0.8230    3.6248    0.9821 C   0  0  0  0  0  0  0  0  0  0  0  0
    0.9418    4.0279   -0.2587 O   0  0  0  0  0  0  0  0  0  0  0  0
    0.6247    3.0965   -1.0947 N   0  0  0  0  0  0  0  0  0  0  0  0
    2.1170   -1.7663    0.3751 C   0  0  0  0  0  0  0  0  0  0  0  0
    3.3133   -1.9583    1.0077 C   0  0  0  0  0  0  0  0  0  0  0  0
    5.2246   -1.0685    1.4082 H   0  0  0  0  0  0  0  0  0  0  0  0
    4.7543    0.9671    0.1640 H   0  0  0  0  0  0  0  0  0  0  0  0
    2.6522    1.2814   -0.9461 H   0  0  0  0  0  0  0  0  0  0  0  0
    0.5218   -0.9549   -2.0340 H   0  0  0  0  0  0  0  0  0  0  0  0
   -0.1814   -1.2622   -0.4535 H   0  0  0  0  0  0  0  0  0  0  0  0
   -1.3987    0.3734   -2.5678 H   0  0  0  0  0  0  0  0  0  0  0  0
   -1.9900    1.7321   -1.5055 H   0  0  0  0  0  0  0  0  0  0  0  0
   -2.0665   -1.8929   -1.9942 H   0  0  0  0  0  0  0  0  0  0  0  0
   -3.4390   -3.3718   -0.6454 H   0  0  0  0  0  0  0  0  0  0  0  0
   -4.5178   -2.5097    1.3997 H   0  0  0  0  0  0  0  0  0  0  0  0
   -4.1917   -0.1556    2.0622 H   0  0  0  0  0  0  0  0  0  0  0  0
   -2.8168    1.3333    0.7153 H   0  0  0  0  0  0  0  0  0  0  0  0
    0.2070    1.7284    1.7788 H   0  0  0  0  0  0  0  0  0  0  0  0
    1.0252    4.2058    1.8848 H   0  0  0  0  0  0  0  0  0  0  0  0
    1.3967   -2.5905    0.4695 H   0  0  0  0  0  0  0  0  0  0  0  0
    3.5136   -2.8716    1.5646 H   0  0  0  0  0  0  0  0  0  0  0  0
  1  2  2  0
  2  3  1  0
  3  4  2  0
  4  5  1  0
  5  6  1  0
  6  7  1  0
  7  8  1  0
  8  9  2  0
  9 10  1  0
 10 11  2  0
 11 12  1  0
 12 13  2  0
  6 14  1  0
 14 15  1  0
 15 16  2  0
 16 17  1  0
 17 18  1  0
  4 19  1  0
 19 20  2  0
 20  1  1  0
 13  8  1  0
 18 14  2  0
  1 21  1  0
  2 22  1  0
  3 23  1  0
  5 24  1  0
  5 25  1  0
  7 26  1  0
  7 27  1  0
  9 28  1  0
 10 29  1  0
 11 30  1  0
 12 31  1  0
 13 32  1  0
 15 33  1  0
 16 34  1  0
 19 35  1  0
 20 36  1  0
M  END

