
     RDKit          3D

 14 15  0  0  0  0  0  0  0  0999 V2000
   -1.6767   -0.5499    0.1042 C   0  0  0  0  0  0  0  0  0  0  0  0
   -1.7205    0.8294    0.1046 C   0  0  0  0  0  0  0  0  0  0  0  0
   -0.5248    1.5153    0.0299 C   0  0  0  0  0  0  0  0  0  0  0  0
    0.6841    0.8412   -0.0435 C   0  0  0  0  0  0  0  0  0  0  0  0
    1.9817    1.2432   -0.1241 N   0  0  0  0  0  0  0  0  0  0  0  0
    2.7536    0.1935   -0.1699 O   0  0  0  0  0  0  0  0  0  0  0  0
    2.0668   -0.9036   -0.1258 C   0  0  0  0  0  0  0  0  0  0  0  0
    0.7362   -0.5394   -0.0445 C   0  0  0  0  0  0  0  0  0  0  0  0
   -0.4638   -1.2106    0.0305 C   0  0  0  0  0  0  0  0  0  0  0  0
   -2.6045   -1.1014    0.1622 H   0  0  0  0  0  0  0  0  0  0  0  0
   -2.6778    1.3313    0.1628 H   0  0  0  0  0  0  0  0  0  0  0  0
   -0.5436    2.5973    0.0293 H   0  0  0  0  0  0  0  0  0  0  0  0
    2.3961   -1.9483   -0.1444 H   0  0  0  0  0  0  0  0  0  0  0  0
   -0.4067   -2.2981    0.0288 H   0  0  0  0  0  0  0  0  0  0  0  0
  1  2  1  0
  2  3  2  0
  3  4  1  0
  4  5  2  0
  5  6  1  0
  6  7  1  0
  7  8  2  0
  8  9  1  0
  9  1  2  0
  8  4  1  0
  1 10  1  0
  2 11  1  0
  3 12  1  0
  7 13  1  0
  9 14  1  0
M  END

