
     RDKit          3D

 14 14  0  0  0  0  0  0  0  0999 V2000
    2.5218    0.0229    0.2084 C   0  0  0  0  0  0  0  0  0  0  0  0
    1.1300   -0.2096   -0.2735 C   0  0  0  0  0  0  0  0  0  0  0  0
    0.0109    0.2388    0.3997 C   0  0  0  0  0  0  0  0  0  0  0  0
   -1.0914   -0.1633   -0.3460 C   0  0  0  0  0  0  0  0  0  0  0  0
   -2.5050    0.1181    0.0286 C   0  0  0  0  0  0  0  0  0  0  0  0
   -0.6204   -0.8076   -1.3899 O   0  0  0  0  0  0  0  0  0  0  0  0
    0.6808   -0.8384   -1.3536 N   0  0  0  0  0  0  0  0  0  0  0  0
    2.8002    1.1011    0.1141 H   0  0  0  0  0  0  0  0  0  0  0  0
    3.2153   -0.6178   -0.3406 H   0  0  0  0  0  0  0  0  0  0  0  0
    2.5629   -0.1766    1.3194 H   0  0  0  0  0  0  0  0  0  0  0  0
   -0.0465    0.7979    1.3292 H   0  0  0  0  0  0  0  0  0  0  0  0
   -2.6545    1.1857    0.3154 H   0  0  0  0  0  0  0  0  0  0  0  0
   -3.1413   -0.1294   -0.8666 H   0  0  0  0  0  0  0  0  0  0  0  0
   -2.8628   -0.5219    0.8556 H   0  0  0  0  0  0  0  0  0  0  0  0
  1  2  1  0
  2  3  1  0
  3  4  2  0
  4  5  1  0
  4  6  1  0
  6  7  1  0
  7  2  2  0
  1  8  1  0
  1  9  1  0
  1 10  1  0
  3 11  1  0
  5 12  1  0
  5 13  1  0
  5 14  1  0
M  END

