
     RDKit          3D

 11 11  0  0  0  0  0  0  0  0999 V2000
   -1.7327    0.0135    0.0761 C   0  0  0  0  0  0  0  0  0  0  0  0
   -0.2689   -0.2383    0.1253 C   0  0  0  0  0  0  0  0  0  0  0  0
    0.7434    0.5862   -0.3345 C   0  0  0  0  0  0  0  0  0  0  0  0
    1.9566   -0.0315   -0.0914 C   0  0  0  0  0  0  0  0  0  0  0  0
    1.6579   -1.1740    0.4889 O   0  0  0  0  0  0  0  0  0  0  0  0
    0.3871   -1.3191    0.6261 N   0  0  0  0  0  0  0  0  0  0  0  0
   -2.0261    0.8835    0.7033 H   0  0  0  0  0  0  0  0  0  0  0  0
   -2.2270   -0.8717    0.4933 H   0  0  0  0  0  0  0  0  0  0  0  0
   -2.0060    0.2565   -0.9565 H   0  0  0  0  0  0  0  0  0  0  0  0
    0.5685    1.5497   -0.8019 H   0  0  0  0  0  0  0  0  0  0  0  0
    2.9472    0.3451   -0.3286 H   0  0  0  0  0  0  0  0  0  0  0  0
  1  2  1  0
  2  3  1  0
  3  4  2  0
  4  5  1  0
  5  6  1  0
  6  2  2  0
  1  7  1  0
  1  8  1  0
  1  9  1  0
  3 10  1  0
  4 11  1  0
M  END

