
     RDKit          3D

 19 20  0  0  0  0  0  0  0  0999 V2000
    3.7552    0.0439   -0.1264 C   0  0  0  0  0  0  0  0  0  0  0  0
    2.3347    0.4018    0.0456 C   0  0  0  0  0  0  0  0  0  0  0  0
    1.2273   -0.4018    0.0222 C   0  0  0  0  0  0  0  0  0  0  0  0
    0.1514    0.4040    0.2303 C   0  0  0  0  0  0  0  0  0  0  0  0
   -1.2474    0.0823    0.3016 N   0  0  0  0  0  0  0  0  0  0  0  0
   -1.8682   -0.5769    1.2955 C   0  0  0  0  0  0  0  0  0  0  0  0
   -3.2159   -0.7140    1.0420 C   0  0  0  0  0  0  0  0  0  0  0  0
   -3.4192   -0.1010   -0.1772 C   0  0  0  0  0  0  0  0  0  0  0  0
   -2.1976    0.3763   -0.6052 C   0  0  0  0  0  0  0  0  0  0  0  0
    0.6497    1.6515    0.3697 N   0  0  0  0  0  0  0  0  0  0  0  0
    1.9269    1.6474    0.2613 O   0  0  0  0  0  0  0  0  0  0  0  0
    4.2448    0.8534   -0.7323 H   0  0  0  0  0  0  0  0  0  0  0  0
    4.2855   -0.0189    0.8470 H   0  0  0  0  0  0  0  0  0  0  0  0
    3.8640   -0.9417   -0.6295 H   0  0  0  0  0  0  0  0  0  0  0  0
    1.1998   -1.4605   -0.1295 H   0  0  0  0  0  0  0  0  0  0  0  0
   -1.3780   -0.9546    2.1845 H   0  0  0  0  0  0  0  0  0  0  0  0
   -3.9751   -1.1983    1.6577 H   0  0  0  0  0  0  0  0  0  0  0  0
   -4.3638   -0.0138   -0.6963 H   0  0  0  0  0  0  0  0  0  0  0  0
   -1.9740    0.9209   -1.5357 H   0  0  0  0  0  0  0  0  0  0  0  0
  1  2  1  0
  2  3  2  0
  3  4  1  0
  4  5  1  0
  5  6  1  0
  6  7  2  0
  7  8  1  0
  8  9  2  0
  4 10  2  0
 10 11  1  0
 11  2  1  0
  9  5  1  0
  1 12  1  0
  1 13  1  0
  1 14  1  0
  3 15  1  0
  6 16  1  0
  7 17  1  0
  8 18  1  0
  9 19  1  0
M  END

