
     RDKit          3D

 14 14  0  0  0  0  0  0  0  0999 V2000
   -2.5466   -0.0285   -0.0716 C   0  0  0  0  0  0  0  0  0  0  0  0
   -1.0975   -0.3659    0.1325 C   0  0  0  0  0  0  0  0  0  0  0  0
   -0.5992   -1.5362    0.4199 O   0  0  0  0  0  0  0  0  0  0  0  0
    0.6847   -1.4904    0.5297 N   0  0  0  0  0  0  0  0  0  0  0  0
    1.1275   -0.2383    0.3129 C   0  0  0  0  0  0  0  0  0  0  0  0
    2.5408    0.2521    0.3432 C   0  0  0  0  0  0  0  0  0  0  0  0
   -0.0185    0.5003    0.0543 C   0  0  0  0  0  0  0  0  0  0  0  0
   -2.5802    0.7349   -0.8656 H   0  0  0  0  0  0  0  0  0  0  0  0
   -3.1213   -0.9330   -0.2707 H   0  0  0  0  0  0  0  0  0  0  0  0
   -2.9532    0.4462    0.8636 H   0  0  0  0  0  0  0  0  0  0  0  0
    3.1883   -0.6276    0.5356 H   0  0  0  0  0  0  0  0  0  0  0  0
    2.7145    1.0063    1.1157 H   0  0  0  0  0  0  0  0  0  0  0  0
    2.7321    0.7178   -0.6334 H   0  0  0  0  0  0  0  0  0  0  0  0
   -0.0712    1.5623   -0.1693 H   0  0  0  0  0  0  0  0  0  0  0  0
  1  2  1  0
  2  3  1  0
  3  4  1  0
  4  5  2  0
  5  6  1  0
  5  7  1  0
  7  2  2  0
  1  8  1  0
  1  9  1  0
  1 10  1  0
  6 11  1  0
  6 12  1  0
  6 13  1  0
  7 14  1  0
M  END

