
     RDKit          3D

 19 20  0  0  0  0  0  0  0  0999 V2000
   -3.7599    0.0725    0.1973 C   0  0  0  0  0  0  0  0  0  0  0  0
   -2.3797   -0.2850   -0.2720 C   0  0  0  0  0  0  0  0  0  0  0  0
   -2.0259   -1.0710   -1.2435 O   0  0  0  0  0  0  0  0  0  0  0  0
   -0.7258   -1.1289   -1.3436 N   0  0  0  0  0  0  0  0  0  0  0  0
   -0.1447   -0.3553   -0.4081 C   0  0  0  0  0  0  0  0  0  0  0  0
   -1.2178    0.1984    0.2946 C   0  0  0  0  0  0  0  0  0  0  0  0
    1.2473   -0.1311   -0.1645 N   0  0  0  0  0  0  0  0  0  0  0  0
    1.8851    1.0579   -0.3058 C   0  0  0  0  0  0  0  0  0  0  0  0
    3.2182    0.9152    0.0107 C   0  0  0  0  0  0  0  0  0  0  0  0
    3.3944   -0.4137    0.3575 C   0  0  0  0  0  0  0  0  0  0  0  0
    2.1521   -1.0416    0.2397 C   0  0  0  0  0  0  0  0  0  0  0  0
   -4.4939   -0.0829   -0.6023 H   0  0  0  0  0  0  0  0  0  0  0  0
   -3.7975    1.1605    0.4845 H   0  0  0  0  0  0  0  0  0  0  0  0
   -4.0160   -0.4817    1.1406 H   0  0  0  0  0  0  0  0  0  0  0  0
   -1.0780    0.8783    1.1251 H   0  0  0  0  0  0  0  0  0  0  0  0
    1.4229    2.0023   -0.6238 H   0  0  0  0  0  0  0  0  0  0  0  0
    4.0028    1.6717    0.0014 H   0  0  0  0  0  0  0  0  0  0  0  0
    4.3313   -0.8691    0.6626 H   0  0  0  0  0  0  0  0  0  0  0  0
    1.9849   -2.0966    0.4497 H   0  0  0  0  0  0  0  0  0  0  0  0
  1  2  1  0
  2  3  1  0
  3  4  1  0
  4  5  2  0
  5  6  1  0
  5  7  1  0
  7  8  1  0
  8  9  2  0
  9 10  1  0
 10 11  2  0
  6  2  2  0
 11  7  1  0
  1 12  1  0
  1 13  1  0
  1 14  1  0
  6 15  1  0
  8 16  1  0
  9 17  1  0
 10 18  1  0
 11 19  1  0
M  END

