
     RDKit          3D

 18 18  0  0  0  0  0  0  0  0999 V2000
    2.5207   -0.2999    0.3032 C   0  0  0  0  0  0  0  0  0  0  0  0
    1.5937    0.7906   -0.2299 C   0  0  0  0  0  0  0  0  0  0  0  0
    0.1697    0.3615   -0.1183 C   0  0  0  0  0  0  0  0  0  0  0  0
   -0.4336   -0.3202   -1.1560 C   0  0  0  0  0  0  0  0  0  0  0  0
   -1.7464   -0.7418   -1.1096 C   0  0  0  0  0  0  0  0  0  0  0  0
   -2.5152   -0.4869    0.0067 C   0  0  0  0  0  0  0  0  0  0  0  0
   -4.1913   -0.9970    0.1271 Cl  0  0  0  0  0  0  0  0  0  0  0  0
   -1.9156    0.1956    1.0490 C   0  0  0  0  0  0  0  0  0  0  0  0
   -0.5944    0.6186    0.9996 C   0  0  0  0  0  0  0  0  0  0  0  0
    2.4240   -0.3002    1.3955 H   0  0  0  0  0  0  0  0  0  0  0  0
    3.5529   -0.0803   -0.0557 H   0  0  0  0  0  0  0  0  0  0  0  0
    2.1532   -1.2928   -0.0741 H   0  0  0  0  0  0  0  0  0  0  0  0
    1.7657    1.7245    0.3746 H   0  0  0  0  0  0  0  0  0  0  0  0
    1.8639    1.0712   -1.2746 H   0  0  0  0  0  0  0  0  0  0  0  0
    0.1996   -0.5113   -2.0347 H   0  0  0  0  0  0  0  0  0  0  0  0
   -2.1812   -1.2693   -1.9360 H   0  0  0  0  0  0  0  0  0  0  0  0
   -2.5334    0.3890    1.9214 H   0  0  0  0  0  0  0  0  0  0  0  0
   -0.1324    1.1488    1.8119 H   0  0  0  0  0  0  0  0  0  0  0  0
  1  2  1  0
  2  3  1  0
  3  4  2  0
  4  5  1  0
  5  6  2  0
  6  7  1  0
  6  8  1  0
  8  9  2  0
  9  3  1  0
  1 10  1  0
  1 11  1  0
  1 12  1  0
  2 13  1  0
  2 14  1  0
  4 15  1  0
  5 16  1  0
  8 17  1  0
  9 18  1  0
M  END

