
     RDKit          3D

 21 21  0  0  0  0  0  0  0  0999 V2000
   -3.9222   -0.7672   -0.0802 C   0  0  0  0  0  0  0  0  0  0  0  0
   -3.5083    0.3445    0.8630 C   0  0  0  0  0  0  0  0  0  0  0  0
   -2.1870    0.6859    0.5594 O   0  0  0  0  0  0  0  0  0  0  0  0
   -1.1287   -0.2004    0.6321 C   0  0  0  0  0  0  0  0  0  0  0  0
   -1.3788   -1.3750    0.9919 O   0  0  0  0  0  0  0  0  0  0  0  0
    0.2290    0.2155    0.3023 C   0  0  0  0  0  0  0  0  0  0  0  0
    1.3497   -0.5970    0.3450 C   0  0  0  0  0  0  0  0  0  0  0  0
    2.4371    0.1580   -0.0340 C   0  0  0  0  0  0  0  0  0  0  0  0
    3.7329   -0.3134   -0.1122 O   0  0  0  0  0  0  0  0  0  0  0  0
    4.8336    0.4534   -0.4965 C   0  0  0  0  0  0  0  0  0  0  0  0
    1.9539    1.3825   -0.2905 N   0  0  0  0  0  0  0  0  0  0  0  0
    0.6509    1.3901   -0.0848 O   0  0  0  0  0  0  0  0  0  0  0  0
   -3.6709   -1.7446    0.4106 H   0  0  0  0  0  0  0  0  0  0  0  0
   -3.3726   -0.6308   -1.0310 H   0  0  0  0  0  0  0  0  0  0  0  0
   -5.0076   -0.7465   -0.3037 H   0  0  0  0  0  0  0  0  0  0  0  0
   -3.6548    0.0848    1.9225 H   0  0  0  0  0  0  0  0  0  0  0  0
   -4.1422    1.2461    0.6304 H   0  0  0  0  0  0  0  0  0  0  0  0
    1.3559   -1.6253    0.6240 H   0  0  0  0  0  0  0  0  0  0  0  0
    5.3991   -0.0077   -1.3480 H   0  0  0  0  0  0  0  0  0  0  0  0
    5.5785    0.6024    0.3267 H   0  0  0  0  0  0  0  0  0  0  0  0
    4.4525    1.4448   -0.8331 H   0  0  0  0  0  0  0  0  0  0  0  0
  1  2  1  0
  2  3  1  0
  3  4  1  0
  4  5  2  0
  4  6  1  0
  6  7  2  0
  7  8  1  0
  8  9  1  0
  9 10  1  0
  8 11  2  0
 11 12  1  0
 12  6  1  0
  1 13  1  0
  1 14  1  0
  1 15  1  0
  2 16  1  0
  2 17  1  0
  7 18  1  0
 10 19  1  0
 10 20  1  0
 10 21  1  0
M  END

