
     RDKit          3D

 17 17  0  0  0  0  0  0  0  0999 V2000
   -2.8849    0.8729   -0.1304 C   0  0  0  0  0  0  0  0  0  0  0  0
   -1.9094   -0.0185   -0.9038 C   0  0  0  0  0  0  0  0  0  0  0  0
   -0.6745    0.0943   -0.2673 O   0  0  0  0  0  0  0  0  0  0  0  0
    0.4863   -0.5572   -0.6551 C   0  0  0  0  0  0  0  0  0  0  0  0
    0.4100   -1.3009   -1.6533 O   0  0  0  0  0  0  0  0  0  0  0  0
    1.7448   -0.3690    0.0888 C   0  0  0  0  0  0  0  0  0  0  0  0
    1.9617    0.4173    1.1982 C   0  0  0  0  0  0  0  0  0  0  0  0
    3.2299    0.3074    1.5579 O   0  0  0  0  0  0  0  0  0  0  0  0
    3.8131   -0.4944    0.7456 N   0  0  0  0  0  0  0  0  0  0  0  0
    2.9551   -0.9571   -0.1968 C   0  0  0  0  0  0  0  0  0  0  0  0
   -3.8285    0.3117    0.0019 H   0  0  0  0  0  0  0  0  0  0  0  0
   -3.0335    1.8454   -0.6316 H   0  0  0  0  0  0  0  0  0  0  0  0
   -2.4802    1.1164    0.8865 H   0  0  0  0  0  0  0  0  0  0  0  0
   -2.2861   -1.0489   -0.9886 H   0  0  0  0  0  0  0  0  0  0  0  0
   -1.9101    0.4013   -1.9492 H   0  0  0  0  0  0  0  0  0  0  0  0
    1.1912    1.0100    1.6641 H   0  0  0  0  0  0  0  0  0  0  0  0
    3.2150   -1.6307   -0.9705 H   0  0  0  0  0  0  0  0  0  0  0  0
  1  2  1  0
  2  3  1  0
  3  4  1  0
  4  5  2  0
  4  6  1  0
  6  7  2  0
  7  8  1  0
  8  9  1  0
  9 10  2  0
 10  6  1  0
  1 11  1  0
  1 12  1  0
  1 13  1  0
  2 14  1  0
  2 15  1  0
  7 16  1  0
 10 17  1  0
M  END

