
     RDKit          3D

 17 17  0  0  0  0  0  0  0  0999 V2000
   -2.8445   -0.0065    0.0284 C   0  0  0  0  0  0  0  0  0  0  0  0
   -1.9810    0.1561   -1.1807 C   0  0  0  0  0  0  0  0  0  0  0  0
   -0.6077    0.3567   -0.8382 O   0  0  0  0  0  0  0  0  0  0  0  0
    0.0942   -0.5891   -0.1205 C   0  0  0  0  0  0  0  0  0  0  0  0
   -0.5282   -1.6286    0.2154 O   0  0  0  0  0  0  0  0  0  0  0  0
    1.5037   -0.3819    0.2302 C   0  0  0  0  0  0  0  0  0  0  0  0
    2.2586    0.7237   -0.0968 C   0  0  0  0  0  0  0  0  0  0  0  0
    3.5208    0.5057    0.4262 C   0  0  0  0  0  0  0  0  0  0  0  0
    3.5049   -0.6621    1.0256 O   0  0  0  0  0  0  0  0  0  0  0  0
    2.3141   -1.1899    0.9119 N   0  0  0  0  0  0  0  0  0  0  0  0
   -3.4796    0.8795    0.2326 H   0  0  0  0  0  0  0  0  0  0  0  0
   -3.5228   -0.8947   -0.0493 H   0  0  0  0  0  0  0  0  0  0  0  0
   -2.2196   -0.1765    0.9226 H   0  0  0  0  0  0  0  0  0  0  0  0
   -2.3135    0.9495   -1.8752 H   0  0  0  0  0  0  0  0  0  0  0  0
   -2.0085   -0.8194   -1.7358 H   0  0  0  0  0  0  0  0  0  0  0  0
    1.9327    1.5885   -0.6504 H   0  0  0  0  0  0  0  0  0  0  0  0
    4.3763    1.1891    0.3505 H   0  0  0  0  0  0  0  0  0  0  0  0
  1  2  1  0
  2  3  1  0
  3  4  1  0
  4  5  2  0
  4  6  1  0
  6  7  1  0
  7  8  2  0
  8  9  1  0
  9 10  1  0
 10  6  2  0
  1 11  1  0
  1 12  1  0
  1 13  1  0
  2 14  1  0
  2 15  1  0
  7 16  1  0
  8 17  1  0
M  END

