
     RDKit          3D

 11 11  0  0  0  0  0  0  0  0999 V2000
    2.7978    0.9871   -0.0217 Cl  0  0  0  0  0  0  0  0  0  0  0  0
    1.2004    0.3193   -0.0067 C   0  0  0  0  0  0  0  0  0  0  0  0
    0.0770    1.1293   -0.0279 C   0  0  0  0  0  0  0  0  0  0  0  0
   -1.1773    0.5459   -0.0147 C   0  0  0  0  0  0  0  0  0  0  0  0
   -1.3482   -0.8233    0.0191 C   0  0  0  0  0  0  0  0  0  0  0  0
   -0.2274   -1.5675    0.0386 N   0  0  0  0  0  0  0  0  0  0  0  0
    1.0110   -1.0447    0.0269 C   0  0  0  0  0  0  0  0  0  0  0  0
    0.1771    2.2075   -0.0545 H   0  0  0  0  0  0  0  0  0  0  0  0
   -2.0674    1.1560   -0.0307 H   0  0  0  0  0  0  0  0  0  0  0  0
   -2.3440   -1.2506    0.0287 H   0  0  0  0  0  0  0  0  0  0  0  0
    1.9010   -1.6590    0.0430 H   0  0  0  0  0  0  0  0  0  0  0  0
  1  2  1  0
  2  3  2  0
  3  4  1  0
  4  5  2  0
  5  6  1  0
  6  7  2  0
  7  2  1  0
  3  8  1  0
  4  9  1  0
  5 10  1  0
  7 11  1  0
M  END

