
     RDKit          3D

 14 14  0  0  0  0  0  0  0  0999 V2000
    2.8571   -0.1260    0.0116 C   0  0  0  0  0  0  0  0  0  0  0  0
    1.4678   -0.1436    0.2843 O   0  0  0  0  0  0  0  0  0  0  0  0
    0.4929    0.1491   -0.6325 C   0  0  0  0  0  0  0  0  0  0  0  0
    0.8761    0.4520   -1.7899 O   0  0  0  0  0  0  0  0  0  0  0  0
   -0.9376    0.1300   -0.3483 C   0  0  0  0  0  0  0  0  0  0  0  0
   -1.5918   -0.1670    0.8283 C   0  0  0  0  0  0  0  0  0  0  0  0
   -2.9502   -0.0517    0.6138 C   0  0  0  0  0  0  0  0  0  0  0  0
   -3.0615    0.3064   -0.6698 N   0  0  0  0  0  0  0  0  0  0  0  0
   -1.8920    0.4051   -1.2037 O   0  0  0  0  0  0  0  0  0  0  0  0
    3.2629   -1.1199    0.3395 H   0  0  0  0  0  0  0  0  0  0  0  0
    3.2940    0.7131    0.5992 H   0  0  0  0  0  0  0  0  0  0  0  0
    3.0780    0.0903   -1.0495 H   0  0  0  0  0  0  0  0  0  0  0  0
   -1.1134   -0.4364    1.7348 H   0  0  0  0  0  0  0  0  0  0  0  0
   -3.7823   -0.2014    1.2823 H   0  0  0  0  0  0  0  0  0  0  0  0
  1  2  1  0
  2  3  1  0
  3  4  2  0
  3  5  1  0
  5  6  2  0
  6  7  1  0
  7  8  2  0
  8  9  1  0
  9  5  1  0
  1 10  1  0
  1 11  1  0
  1 12  1  0
  6 13  1  0
  7 14  1  0
M  END

