
     RDKit          3D

 21 22  0  0  0  0  0  0  0  0999 V2000
    4.7028    0.9091   -0.2855 C   0  0  0  0  0  0  0  0  0  0  0  0
    3.3198    0.7264   -0.2558 O   0  0  0  0  0  0  0  0  0  0  0  0
    2.7902   -0.3862    0.3965 C   0  0  0  0  0  0  0  0  0  0  0  0
    3.5906   -1.1728    0.9278 O   0  0  0  0  0  0  0  0  0  0  0  0
    1.3693   -0.6277    0.4601 C   0  0  0  0  0  0  0  0  0  0  0  0
    0.3276    0.1250   -0.0648 C   0  0  0  0  0  0  0  0  0  0  0  0
   -0.8221   -0.5176    0.2616 C   0  0  0  0  0  0  0  0  0  0  0  0
   -2.1900   -0.1210   -0.0639 C   0  0  0  0  0  0  0  0  0  0  0  0
   -3.3474   -0.7721    0.2672 C   0  0  0  0  0  0  0  0  0  0  0  0
   -4.5011   -0.2296   -0.1351 C   0  0  0  0  0  0  0  0  0  0  0  0
   -4.4313    0.9377   -0.8484 C   0  0  0  0  0  0  0  0  0  0  0  0
   -2.7538    1.2340   -0.9304 S   0  0  0  0  0  0  0  0  0  0  0  0
   -0.4782   -1.5794    0.9347 O   0  0  0  0  0  0  0  0  0  0  0  0
    0.7929   -1.6732    1.0683 N   0  0  0  0  0  0  0  0  0  0  0  0
    5.2282    0.0501   -0.7482 H   0  0  0  0  0  0  0  0  0  0  0  0
    5.1401    1.1353    0.7240 H   0  0  0  0  0  0  0  0  0  0  0  0
    4.9026    1.7997   -0.9354 H   0  0  0  0  0  0  0  0  0  0  0  0
    0.4400    1.0374   -0.6188 H   0  0  0  0  0  0  0  0  0  0  0  0
   -3.3037   -1.7213    0.8533 H   0  0  0  0  0  0  0  0  0  0  0  0
   -5.4994   -0.6734    0.0782 H   0  0  0  0  0  0  0  0  0  0  0  0
   -5.2771    1.5196   -1.2566 H   0  0  0  0  0  0  0  0  0  0  0  0
  1  2  1  0
  2  3  1  0
  3  4  2  0
  3  5  1  0
  5  6  1  0
  6  7  2  0
  7  8  1  0
  8  9  2  0
  9 10  1  0
 10 11  2  0
 11 12  1  0
  7 13  1  0
 13 14  1  0
 14  5  2  0
 12  8  1  0
  1 15  1  0
  1 16  1  0
  1 17  1  0
  6 18  1  0
  9 19  1  0
 10 20  1  0
 11 21  1  0
M  END

