
     RDKit          3D

 21 22  0  0  0  0  0  0  0  0999 V2000
    4.5390    0.8012   -0.4493 C   0  0  0  0  0  0  0  0  0  0  0  0
    3.1652    0.4662   -0.3265 O   0  0  0  0  0  0  0  0  0  0  0  0
    2.7064   -0.8114   -0.1220 C   0  0  0  0  0  0  0  0  0  0  0  0
    3.5439   -1.7447   -0.0372 O   0  0  0  0  0  0  0  0  0  0  0  0
    1.2961   -1.1256   -0.0001 C   0  0  0  0  0  0  0  0  0  0  0  0
    0.2167   -0.2455   -0.0641 C   0  0  0  0  0  0  0  0  0  0  0  0
   -0.9295   -0.9612    0.0995 C   0  0  0  0  0  0  0  0  0  0  0  0
   -0.5820   -2.1966    0.2537 O   0  0  0  0  0  0  0  0  0  0  0  0
    0.7239   -2.3227    0.1993 N   0  0  0  0  0  0  0  0  0  0  0  0
   -2.2773   -0.4020    0.0954 C   0  0  0  0  0  0  0  0  0  0  0  0
   -3.7842   -1.2166    0.2928 S   0  0  0  0  0  0  0  0  0  0  0  0
   -4.8351    0.1190    0.1634 C   0  0  0  0  0  0  0  0  0  0  0  0
   -3.9777    1.1649   -0.0305 C   0  0  0  0  0  0  0  0  0  0  0  0
   -2.6704    0.9024   -0.0658 C   0  0  0  0  0  0  0  0  0  0  0  0
    4.6800    1.7312   -1.0404 H   0  0  0  0  0  0  0  0  0  0  0  0
    5.1262   -0.0081   -0.9433 H   0  0  0  0  0  0  0  0  0  0  0  0
    4.9069    1.0052    0.5825 H   0  0  0  0  0  0  0  0  0  0  0  0
    0.3617    0.8292   -0.2228 H   0  0  0  0  0  0  0  0  0  0  0  0
   -5.9376    0.1533    0.2194 H   0  0  0  0  0  0  0  0  0  0  0  0
   -4.3924    2.1886   -0.1512 H   0  0  0  0  0  0  0  0  0  0  0  0
   -1.8799    1.6735   -0.2176 H   0  0  0  0  0  0  0  0  0  0  0  0
  1  2  1  0
  2  3  1  0
  3  4  2  0
  3  5  1  0
  5  6  1  0
  6  7  2  0
  7  8  1  0
  8  9  1  0
  7 10  1  0
 10 11  1  0
 11 12  1  0
 12 13  2  0
 13 14  1  0
  9  5  2  0
 14 10  2  0
  1 15  1  0
  1 16  1  0
  1 17  1  0
  6 18  1  0
 12 19  1  0
 13 20  1  0
 14 21  1  0
M  END

