
     RDKit          3D

 16 16  0  0  0  0  0  0  0  0999 V2000
   -2.8082    0.0304    0.1718 C   0  0  0  0  0  0  0  0  0  0  0  0
   -1.7886   -0.4012   -0.6929 O   0  0  0  0  0  0  0  0  0  0  0  0
   -0.4411   -0.2252   -0.4074 C   0  0  0  0  0  0  0  0  0  0  0  0
    0.5229   -0.6663   -1.2886 C   0  0  0  0  0  0  0  0  0  0  0  0
    1.8683   -0.4952   -1.0126 C   0  0  0  0  0  0  0  0  0  0  0  0
    2.3087    0.1170    0.1426 C   0  0  0  0  0  0  0  0  0  0  0  0
    4.3652    0.3600    0.5292 I   0  0  0  0  0  0  0  0  0  0  0  0
    1.3466    0.5595    1.0264 C   0  0  0  0  0  0  0  0  0  0  0  0
   -0.0076    0.3868    0.7476 C   0  0  0  0  0  0  0  0  0  0  0  0
   -2.5093    1.0529    0.5278 H   0  0  0  0  0  0  0  0  0  0  0  0
   -3.7819    0.1283   -0.3030 H   0  0  0  0  0  0  0  0  0  0  0  0
   -2.7974   -0.6478    1.0551 H   0  0  0  0  0  0  0  0  0  0  0  0
    0.1675   -1.1453   -2.1920 H   0  0  0  0  0  0  0  0  0  0  0  0
    2.6076   -0.8504   -1.7208 H   0  0  0  0  0  0  0  0  0  0  0  0
    1.6756    1.0459    1.9449 H   0  0  0  0  0  0  0  0  0  0  0  0
   -0.7282    0.7507    1.4720 H   0  0  0  0  0  0  0  0  0  0  0  0
  1  2  1  0
  2  3  1  0
  3  4  2  0
  4  5  1  0
  5  6  2  0
  6  7  1  0
  6  8  1  0
  8  9  2  0
  9  3  1  0
  1 10  1  0
  1 11  1  0
  1 12  1  0
  4 13  1  0
  5 14  1  0
  8 15  1  0
  9 16  1  0
M  END

