
     RDKit          3D

 15 15  0  0  0  0  0  0  0  0999 V2000
   -2.7318    0.7402    1.1655 F   0  0  0  0  0  0  0  0  0  0  0  0
   -2.2619   -0.1171    0.1862 C   0  0  0  0  0  0  0  0  0  0  0  0
   -2.9085    0.1115   -0.9777 F   0  0  0  0  0  0  0  0  0  0  0  0
   -2.6599   -1.3796    0.6133 F   0  0  0  0  0  0  0  0  0  0  0  0
   -0.7824   -0.0413    0.0437 C   0  0  0  0  0  0  0  0  0  0  0  0
    0.0109   -1.1426   -0.1807 C   0  0  0  0  0  0  0  0  0  0  0  0
    1.3864   -1.0731   -0.2876 C   0  0  0  0  0  0  0  0  0  0  0  0
    2.0645    0.1061   -0.1773 C   0  0  0  0  0  0  0  0  0  0  0  0
    4.1670    0.2517   -0.3292 I   0  0  0  0  0  0  0  0  0  0  0  0
    1.2733    1.2200    0.0498 C   0  0  0  0  0  0  0  0  0  0  0  0
   -0.0931    1.1490    0.1576 C   0  0  0  0  0  0  0  0  0  0  0  0
   -0.5194   -2.0751   -0.3061 H   0  0  0  0  0  0  0  0  0  0  0  0
    1.9694   -1.9367   -0.5020 H   0  0  0  0  0  0  0  0  0  0  0  0
    1.7836    2.1680    0.1717 H   0  0  0  0  0  0  0  0  0  0  0  0
   -0.6980    2.0190    0.3729 H   0  0  0  0  0  0  0  0  0  0  0  0
  1  2  1  0
  2  3  1  0
  2  4  1  0
  2  5  1  0
  5  6  2  0
  6  7  1  0
  7  8  2  0
  8  9  1  0
  8 10  1  0
 10 11  2  0
 11  5  1  0
  6 12  1  0
  7 13  1  0
 10 14  1  0
 11 15  1  0
M  END

